<?xml version="1.0" encoding="utf-8"?>
<!DOCTYPE plans SYSTEM "http://www.matsim.org/files/dtd/plans_v4.dtd">

<plans>

<!-- ====================================================================== -->

	<person id="555524.1#11613" sex="f" age="64" employed="no">
		<plan score="61.85440209325666" selected="no">
			<act type="home" link="586896048R-590157653-52801181-52801182R" x="4462340.457866539" y="5337369.833443359" start_time="00:00:00" dur="09:01:39" end_time="09:01:39" />
			<leg mode="bike" dep_time="09:01:39" trav_time="00:52:11" arr_time="09:53:50">
				<route dist="9132.250540545458" trav_time="00:52:11">
					
				</route>
			</leg>
			<act type="shopping" link="52823603-52823604-52822212" x="4467324.715374953" y="5333873.699172648" start_time="09:16:39" end_time="10:38:37" />
			<leg mode="bike" dep_time="10:38:37" trav_time="00:52:11" arr_time="11:30:48">
				<route dist="9132.250540545458" trav_time="00:52:11">
					
				</route>
			</leg>
			<act type="home" link="586896048R-590157653-52801181-52801182R" x="4462340.457866539" y="5337369.833443359" start_time="10:53:37" />
		</plan>

		<plan score="61.85440209325666" selected="no">
			<act type="home" link="586896048R-590157653-52801181-52801182R" x="4462340.457866539" y="5337369.833443359" start_time="00:00:00" dur="09:01:39" end_time="09:01:39" />
			<leg mode="bike" dep_time="09:01:39" trav_time="00:52:11" arr_time="09:53:50">
				<route dist="9132.250540545458" trav_time="00:52:11">
					
				</route>
			</leg>
			<act type="shopping" link="52823603-52823604-52822212" x="4467324.715374953" y="5333873.699172648" start_time="09:16:39" end_time="10:38:37" />
			<leg mode="bike" dep_time="10:38:37" trav_time="00:52:11" arr_time="11:30:48">
				<route dist="9132.250540545458" trav_time="00:52:11">
					
				</route>
			</leg>
			<act type="home" link="586896048R-590157653-52801181-52801182R" x="4462340.457866539" y="5337369.833443359" start_time="10:53:37" />
		</plan>

		<plan score="61.85440209325666" selected="yes">
			<act type="home" link="586896048R-590157653-52801181-52801182R" x="4462340.457866539" y="5337369.833443359" start_time="00:00:00" dur="09:01:39" end_time="09:01:39" />
			<leg mode="bike" dep_time="09:01:39" trav_time="00:52:11" arr_time="09:53:50">
				<route dist="9132.250540545458" trav_time="00:52:11">
					
				</route>
			</leg>
			<act type="shopping" link="52823603-52823604-52822212" x="4467324.715374953" y="5333873.699172648" start_time="09:16:39" end_time="10:38:37" />
			<leg mode="bike" dep_time="10:38:37" trav_time="00:52:11" arr_time="11:30:48">
				<route dist="9132.250540545458" trav_time="00:52:11">
					
				</route>
			</leg>
			<act type="home" link="586896048R-590157653-52801181-52801182R" x="4462340.457866539" y="5337369.833443359" start_time="10:53:37" />
		</plan>

		<plan score="61.85440209325666" selected="no">
			<act type="home" link="586896048R-590157653-52801181-52801182R" x="4462340.457866539" y="5337369.833443359" start_time="00:00:00" dur="09:01:39" end_time="09:01:39" />
			<leg mode="bike" dep_time="09:01:39" trav_time="00:52:11" arr_time="09:53:50">
				<route dist="9132.250540545458" trav_time="00:52:11">
					
				</route>
			</leg>
			<act type="shopping" link="52823603-52823604-52822212" x="4467324.715374953" y="5333873.699172648" start_time="09:16:39" end_time="10:38:37" />
			<leg mode="bike" dep_time="10:38:37" trav_time="00:52:11" arr_time="11:30:48">
				<route dist="9132.250540545458" trav_time="00:52:11">
					
				</route>
			</leg>
			<act type="home" link="586896048R-590157653-52801181-52801182R" x="4462340.457866539" y="5337369.833443359" start_time="10:53:37" />
		</plan>

	</person>

<!-- ====================================================================== -->

	<person id="562720.3#8327" sex="f" age="22" employed="no">
		<plan score="74.78852065298696" selected="no">
			<act type="home" link="52813025-52813026-591565598-52808564-52808563-593119493-52808559-52808560" x="4473161.137861795" y="5331215.703556307" start_time="00:00:00" dur="07:49:56" end_time="07:49:56" />
			<leg mode="pt" dep_time="07:49:56" trav_time="00:14:58" arr_time="08:04:54">
				<route dist="8196.69852262491" trav_time="00:14:58">
					
				</route>
			</leg>
			<act type="education" link="541985304-541985305R" x="4468793.763785812" y="5334499.973470223" start_time="08:09:56" end_time="11:04:15" />
			<leg mode="pt" dep_time="11:04:15" trav_time="00:06:27" arr_time="11:10:42">
				<route dist="2090.583086364255" trav_time="00:06:27">
					
				</route>
			</leg>
			<act type="shopping" link="52822453-52821213-52821214R-52821215R" x="4468464.940700832" y="5333145.596656866" start_time="11:08:15" end_time="12:58:00" />
			<leg mode="pt" dep_time="12:58:00" trav_time="00:15:29" arr_time="13:13:29">
				<route dist="7615.917482287043" trav_time="00:15:29">
					
				</route>
			</leg>
			<act type="home" link="52813025-52813026-591565598-52808564-52808563-593119493-52808559-52808560" x="4473161.137861795" y="5331215.703556307" start_time="13:14:00" />
		</plan>

		<plan score="74.78852065298696" selected="no">
			<act type="home" link="52813025-52813026-591565598-52808564-52808563-593119493-52808559-52808560" x="4473161.137861795" y="5331215.703556307" start_time="00:00:00" dur="07:49:56" end_time="07:49:56" />
			<leg mode="pt" dep_time="07:49:56" trav_time="00:14:58" arr_time="08:04:54">
				<route dist="8196.69852262491" trav_time="00:14:58">
					
				</route>
			</leg>
			<act type="education" link="541985304-541985305R" x="4468793.763785812" y="5334499.973470223" start_time="08:09:56" end_time="11:04:15" />
			<leg mode="pt" dep_time="11:04:15" trav_time="00:06:27" arr_time="11:10:42">
				<route dist="2090.583086364255" trav_time="00:06:27">
					
				</route>
			</leg>
			<act type="shopping" link="52822453-52821213-52821214R-52821215R" x="4468464.940700832" y="5333145.596656866" start_time="11:08:15" end_time="12:58:00" />
			<leg mode="pt" dep_time="12:58:00" trav_time="00:15:29" arr_time="13:13:29">
				<route dist="7615.917482287043" trav_time="00:15:29">
					
				</route>
			</leg>
			<act type="home" link="52813025-52813026-591565598-52808564-52808563-593119493-52808559-52808560" x="4473161.137861795" y="5331215.703556307" start_time="13:14:00" />
		</plan>

		<plan score="74.78852065298696" selected="yes">
			<act type="home" link="52813025-52813026-591565598-52808564-52808563-593119493-52808559-52808560" x="4473161.137861795" y="5331215.703556307" start_time="00:00:00" dur="07:49:56" end_time="07:49:56" />
			<leg mode="pt" dep_time="07:49:56" trav_time="00:14:58" arr_time="08:04:54">
				<route dist="8196.69852262491" trav_time="00:14:58">
					
				</route>
			</leg>
			<act type="education" link="541985304-541985305R" x="4468793.763785812" y="5334499.973470223" start_time="08:09:56" end_time="11:04:15" />
			<leg mode="pt" dep_time="11:04:15" trav_time="00:06:27" arr_time="11:10:42">
				<route dist="2090.583086364255" trav_time="00:06:27">
					
				</route>
			</leg>
			<act type="shopping" link="52822453-52821213-52821214R-52821215R" x="4468464.940700832" y="5333145.596656866" start_time="11:08:15" end_time="12:58:00" />
			<leg mode="pt" dep_time="12:58:00" trav_time="00:15:29" arr_time="13:13:29">
				<route dist="7615.917482287043" trav_time="00:15:29">
					
				</route>
			</leg>
			<act type="home" link="52813025-52813026-591565598-52808564-52808563-593119493-52808559-52808560" x="4473161.137861795" y="5331215.703556307" start_time="13:14:00" />
		</plan>

		<plan score="74.78852065298696" selected="no">
			<act type="home" link="52813025-52813026-591565598-52808564-52808563-593119493-52808559-52808560" x="4473161.137861795" y="5331215.703556307" start_time="00:00:00" dur="07:49:56" end_time="07:49:56" />
			<leg mode="pt" dep_time="07:49:56" trav_time="00:14:58" arr_time="08:04:54">
				<route dist="8196.69852262491" trav_time="00:14:58">
					
				</route>
			</leg>
			<act type="education" link="541985304-541985305R" x="4468793.763785812" y="5334499.973470223" start_time="08:09:56" end_time="11:04:15" />
			<leg mode="pt" dep_time="11:04:15" trav_time="00:06:27" arr_time="11:10:42">
				<route dist="2090.583086364255" trav_time="00:06:27">
					
				</route>
			</leg>
			<act type="shopping" link="52822453-52821213-52821214R-52821215R" x="4468464.940700832" y="5333145.596656866" start_time="11:08:15" end_time="12:58:00" />
			<leg mode="pt" dep_time="12:58:00" trav_time="00:15:29" arr_time="13:13:29">
				<route dist="7615.917482287043" trav_time="00:15:29">
					
				</route>
			</leg>
			<act type="home" link="52813025-52813026-591565598-52808564-52808563-593119493-52808559-52808560" x="4473161.137861795" y="5331215.703556307" start_time="13:14:00" />
		</plan>

	</person>

<!-- ====================================================================== -->

	<person id="562777.3#12609" sex="m" age="17" employed="no">
		<plan score="41.210726081576844" selected="no">
			<act type="home" link="52809228-52809229R-52809230R-52809231R-52809232-52809233R-52808920R-592178112-52809117R-52809118R-52813237" x="4473908.128354903" y="5331300.051499978" start_time="00:00:00" dur="15:02:46" end_time="15:02:46" />
			<leg mode="walk" dep_time="15:02:46" trav_time="00:09:53" arr_time="15:12:39">
				<route dist="890.895065869034" trav_time="00:09:53">
					
				</route>
			</leg>
			<act type="leisure" link="52809024-52809025-52809026-52809027-590229023" x="4474106.56939677" y="5331859.849722523" start_time="15:05:46" end_time="15:05:46" />
			<leg mode="walk" dep_time="15:05:46" trav_time="00:09:53" arr_time="15:15:39">
				<route dist="890.895065869034" trav_time="00:09:53">
					
				</route>
			</leg>
			<act type="home" link="52809228-52809229R-52809230R-52809231R-52809232-52809233R-52808920R-592178112-52809117R-52809118R-52813237" x="4473908.128354903" y="5331300.051499978" start_time="15:08:46" />
		</plan>

		<plan score="41.210726081576844" selected="no">
			<act type="home" link="52809228-52809229R-52809230R-52809231R-52809232-52809233R-52808920R-592178112-52809117R-52809118R-52813237" x="4473908.128354903" y="5331300.051499978" start_time="00:00:00" dur="15:02:46" end_time="15:02:46" />
			<leg mode="walk" dep_time="15:02:46" trav_time="00:09:53" arr_time="15:12:39">
				<route dist="890.895065869034" trav_time="00:09:53">
					
				</route>
			</leg>
			<act type="leisure" link="52809024-52809025-52809026-52809027-590229023" x="4474106.56939677" y="5331859.849722523" start_time="15:05:46" end_time="15:05:46" />
			<leg mode="walk" dep_time="15:05:46" trav_time="00:09:53" arr_time="15:15:39">
				<route dist="890.895065869034" trav_time="00:09:53">
					
				</route>
			</leg>
			<act type="home" link="52809228-52809229R-52809230R-52809231R-52809232-52809233R-52808920R-592178112-52809117R-52809118R-52813237" x="4473908.128354903" y="5331300.051499978" start_time="15:08:46" />
		</plan>

		<plan score="41.210726081576844" selected="no">
			<act type="home" link="52809228-52809229R-52809230R-52809231R-52809232-52809233R-52808920R-592178112-52809117R-52809118R-52813237" x="4473908.128354903" y="5331300.051499978" start_time="00:00:00" dur="15:02:46" end_time="15:02:46" />
			<leg mode="walk" dep_time="15:02:46" trav_time="00:09:53" arr_time="15:12:39">
				<route dist="890.895065869034" trav_time="00:09:53">
					
				</route>
			</leg>
			<act type="leisure" link="52809024-52809025-52809026-52809027-590229023" x="4474106.56939677" y="5331859.849722523" start_time="15:05:46" end_time="15:05:46" />
			<leg mode="walk" dep_time="15:05:46" trav_time="00:09:53" arr_time="15:15:39">
				<route dist="890.895065869034" trav_time="00:09:53">
					
				</route>
			</leg>
			<act type="home" link="52809228-52809229R-52809230R-52809231R-52809232-52809233R-52808920R-592178112-52809117R-52809118R-52813237" x="4473908.128354903" y="5331300.051499978" start_time="15:08:46" />
		</plan>

		<plan score="41.210726081576844" selected="yes">
			<act type="home" link="52809228-52809229R-52809230R-52809231R-52809232-52809233R-52808920R-592178112-52809117R-52809118R-52813237" x="4473908.128354903" y="5331300.051499978" start_time="00:00:00" dur="15:02:46" end_time="15:02:46" />
			<leg mode="walk" dep_time="15:02:46" trav_time="00:09:53" arr_time="15:12:39">
				<route dist="890.895065869034" trav_time="00:09:53">
					
				</route>
			</leg>
			<act type="leisure" link="52809024-52809025-52809026-52809027-590229023" x="4474106.56939677" y="5331859.849722523" start_time="15:05:46" end_time="15:05:46" />
			<leg mode="walk" dep_time="15:05:46" trav_time="00:09:53" arr_time="15:15:39">
				<route dist="890.895065869034" trav_time="00:09:53">
					
				</route>
			</leg>
			<act type="home" link="52809228-52809229R-52809230R-52809231R-52809232-52809233R-52808920R-592178112-52809117R-52809118R-52813237" x="4473908.128354903" y="5331300.051499978" start_time="15:08:46" />
		</plan>

	</person>

<!-- ====================================================================== -->

	<person id="561337.2#15212" sex="m" age="29" employed="no">
		<plan score="119.12966161944833" selected="no">
			<act type="home" link="590600025" x="4468803.761485273" y="5329851.223390675" start_time="00:00:00" dur="07:00:04" end_time="07:00:04" />
			<leg mode="pt" dep_time="07:00:04" trav_time="00:21:53" arr_time="07:21:57">
				<route dist="5588.4033383416145" trav_time="00:21:53">
					
				</route>
			</leg>
			<act type="work" link="52810905" x="4465229.157189943" y="5328801.310977703" start_time="07:27:04" end_time="15:39:20" />
			<leg mode="pt" dep_time="15:39:20" trav_time="00:14:01" arr_time="15:53:21">
				<route dist="5588.4033383416145" trav_time="00:14:01">
					
				</route>
			</leg>
			<act type="home" link="590600025" x="4468803.761485273" y="5329851.223390675" start_time="16:14:20" end_time="16:48:40" />
			<leg mode="car" dep_time="16:48:40" trav_time="00:05:51" arr_time="16:54:31">
				<route dist="4177.0" trav_time="00:05:51">
					102463765 102463764 102471269 102471268 102620936 102474652 102461679 102459013 102459014 102472758 102457591 102461574 
				</route>
			</leg>
			<act type="private" link="52812438-52812439R-52812440R-52812441-52812442R-52812443R-52816130-52816131R-590183417-52816133-52816134-52816135R-52816136R-52816137R" x="4471116.903259145" y="5328532.708841317" start_time="16:55:40" end_time="18:13:40" />
			<leg mode="car" dep_time="18:13:40" trav_time="00:03:20" arr_time="18:17:00">
				<route dist="2171.0" trav_time="00:03:20">
					102457591 102472758 102458969 102463590 102464656 
				</route>
			</leg>
			<act type="shopping" link="52815931" x="4469765.6895654" y="5328866.343521069" start_time="18:18:40" end_time="19:02:13" />
			<leg mode="car" dep_time="19:02:13" trav_time="00:04:40" arr_time="19:06:53">
				<route dist="3482.0" trav_time="00:04:40">
					102469455 102464656 102463590 102458969 102472758 102457591 102475606 
				</route>
			</leg>
			<act type="pickup" link="11888-11886R-576291380R-592207218R-52816161R-52816160-52816159R-52816158R" x="4471405.311352734" y="5328398.027155216" start_time="19:06:13" end_time="19:39:45" />
			<leg mode="car" dep_time="19:39:45" trav_time="00:05:55" arr_time="19:45:40">
				<route dist="5205.0" trav_time="00:05:55">
					102457591 102472758 102459014 102468789 102467432 102474243 102471317 102470279 102466385 102468472 102469758 102457857 102475855 102468489 102467408 102462454 102459217 102458792 102462446 
				</route>
			</leg>
			<act type="home" link="590600025" x="4468803.761485273" y="5329851.223390675" start_time="19:45:45" />
		</plan>

		<plan score="119.13980494159757" selected="no">
			<act type="home" link="590600025" x="4468803.761485273" y="5329851.223390675" start_time="00:00:00" dur="07:00:04" end_time="07:00:04" />
			<leg mode="pt" dep_time="07:00:04" trav_time="00:21:53" arr_time="07:21:57">
				<route dist="5588.4033383416145" trav_time="00:21:53">
					
				</route>
			</leg>
			<act type="work" link="52810905" x="4465229.157189943" y="5328801.310977703" start_time="07:27:04" end_time="15:39:20" />
			<leg mode="pt" dep_time="15:39:20" trav_time="00:14:01" arr_time="15:53:21">
				<route dist="5588.4033383416145" trav_time="00:14:01">
					
				</route>
			</leg>
			<act type="home" link="590600025" x="4468803.761485273" y="5329851.223390675" start_time="16:14:20" end_time="16:48:40" />
			<leg mode="car" dep_time="16:48:40" trav_time="00:05:52" arr_time="16:54:32">
				<route dist="4177.0" trav_time="00:05:52">
					102463765 102463764 102471269 102471268 102620936 102474652 102461679 102459013 102459014 102472758 102457591 102461574 
				</route>
			</leg>
			<act type="private" link="52812438-52812439R-52812440R-52812441-52812442R-52812443R-52816130-52816131R-590183417-52816133-52816134-52816135R-52816136R-52816137R" x="4471116.903259145" y="5328532.708841317" start_time="16:55:40" end_time="18:13:40" />
			<leg mode="car" dep_time="18:13:40" trav_time="00:03:15" arr_time="18:16:55">
				<route dist="2171.0" trav_time="00:03:15">
					102457591 102472758 102458969 102463590 102464656 
				</route>
			</leg>
			<act type="shopping" link="52815931" x="4469765.6895654" y="5328866.343521069" start_time="18:18:40" end_time="19:02:13" />
			<leg mode="car" dep_time="19:02:13" trav_time="00:04:41" arr_time="19:06:54">
				<route dist="3482.0" trav_time="00:04:41">
					102469455 102464656 102463590 102458969 102472758 102457591 102475606 
				</route>
			</leg>
			<act type="pickup" link="11888-11886R-576291380R-592207218R-52816161R-52816160-52816159R-52816158R" x="4471405.311352734" y="5328398.027155216" start_time="19:06:13" end_time="19:39:45" />
			<leg mode="car" dep_time="19:39:45" trav_time="00:05:56" arr_time="19:45:41">
				<route dist="5205.0" trav_time="00:05:56">
					102457591 102472758 102459014 102468789 102467432 102474243 102471317 102470279 102466385 102468472 102469758 102457857 102475855 102468489 102467408 102462454 102459217 102458792 102462446 
				</route>
			</leg>
			<act type="home" link="590600025" x="4468803.761485273" y="5329851.223390675" start_time="19:45:45" />
		</plan>

		<plan score="119.1381316924003" selected="yes">
			<act type="home" link="590600025" x="4468803.761485273" y="5329851.223390675" start_time="00:00:00" dur="07:00:04" end_time="07:00:04" />
			<leg mode="pt" dep_time="07:00:04" trav_time="00:21:53" arr_time="07:21:57">
				<route dist="5588.4033383416145" trav_time="00:21:53">
					
				</route>
			</leg>
			<act type="work" link="52810905" x="4465229.157189943" y="5328801.310977703" start_time="07:27:04" end_time="15:39:20" />
			<leg mode="pt" dep_time="15:39:20" trav_time="00:14:01" arr_time="15:53:21">
				<route dist="5588.4033383416145" trav_time="00:14:01">
					
				</route>
			</leg>
			<act type="home" link="590600025" x="4468803.761485273" y="5329851.223390675" start_time="16:14:20" end_time="16:48:40" />
			<leg mode="car" dep_time="16:48:40" trav_time="00:05:21" arr_time="16:54:01">
				<route dist="4177.0" trav_time="00:05:21">
					102463765 102463764 102471269 102471268 102620936 102474652 102461679 102459013 102459014 102472758 102457591 102461574 
				</route>
			</leg>
			<act type="private" link="52812438-52812439R-52812440R-52812441-52812442R-52812443R-52816130-52816131R-590183417-52816133-52816134-52816135R-52816136R-52816137R" x="4471116.903259145" y="5328532.708841317" start_time="16:55:40" end_time="18:13:40" />
			<leg mode="car" dep_time="18:13:40" trav_time="00:03:15" arr_time="18:16:55">
				<route dist="2171.0" trav_time="00:03:15">
					102457591 102472758 102458969 102463590 102464656 
				</route>
			</leg>
			<act type="shopping" link="52815931" x="4469765.6895654" y="5328866.343521069" start_time="18:18:40" end_time="19:02:13" />
			<leg mode="car" dep_time="19:02:13" trav_time="00:04:37" arr_time="19:06:50">
				<route dist="3482.0" trav_time="00:04:37">
					102469455 102464656 102463590 102458969 102472758 102457591 102475606 
				</route>
			</leg>
			<act type="pickup" link="11888-11886R-576291380R-592207218R-52816161R-52816160-52816159R-52816158R" x="4471405.311352734" y="5328398.027155216" start_time="19:06:13" end_time="19:39:45" />
			<leg mode="car" dep_time="19:39:45" trav_time="00:05:57" arr_time="19:45:42">
				<route dist="5205.0" trav_time="00:05:57">
					102457591 102472758 102459014 102468789 102467432 102474243 102471317 102470279 102466385 102468472 102469758 102457857 102475855 102468489 102467408 102462454 102459217 102458792 102462446 
				</route>
			</leg>
			<act type="home" link="590600025" x="4468803.761485273" y="5329851.223390675" start_time="19:45:45" />
		</plan>

		<plan score="119.13946911099883" selected="no">
			<act type="home" link="590600025" x="4468803.761485273" y="5329851.223390675" start_time="00:00:00" dur="07:00:04" end_time="07:00:04" />
			<leg mode="pt" dep_time="07:00:04" trav_time="00:21:53" arr_time="07:21:57">
				<route dist="5588.4033383416145" trav_time="00:21:53">
					
				</route>
			</leg>
			<act type="work" link="52810905" x="4465229.157189943" y="5328801.310977703" start_time="07:27:04" end_time="15:39:20" />
			<leg mode="pt" dep_time="15:39:20" trav_time="00:14:01" arr_time="15:53:21">
				<route dist="5588.4033383416145" trav_time="00:14:01">
					
				</route>
			</leg>
			<act type="home" link="590600025" x="4468803.761485273" y="5329851.223390675" start_time="16:14:20" end_time="16:48:40" />
			<leg mode="car" dep_time="16:48:40" trav_time="00:05:29" arr_time="16:54:09">
				<route dist="4177.0" trav_time="00:05:29">
					102463765 102463764 102471269 102471268 102620936 102474652 102461679 102459013 102459014 102472758 102457591 102461574 
				</route>
			</leg>
			<act type="private" link="52812438-52812439R-52812440R-52812441-52812442R-52812443R-52816130-52816131R-590183417-52816133-52816134-52816135R-52816136R-52816137R" x="4471116.903259145" y="5328532.708841317" start_time="16:55:40" end_time="18:13:40" />
			<leg mode="car" dep_time="18:13:40" trav_time="00:03:15" arr_time="18:16:55">
				<route dist="2171.0" trav_time="00:03:15">
					102457591 102472758 102458969 102463590 102464656 
				</route>
			</leg>
			<act type="shopping" link="52815931" x="4469765.6895654" y="5328866.343521069" start_time="18:18:40" end_time="19:02:13" />
			<leg mode="car" dep_time="19:02:13" trav_time="00:04:40" arr_time="19:06:53">
				<route dist="3482.0" trav_time="00:04:40">
					102469455 102464656 102463590 102458969 102472758 102457591 102475606 
				</route>
			</leg>
			<act type="pickup" link="11888-11886R-576291380R-592207218R-52816161R-52816160-52816159R-52816158R" x="4471405.311352734" y="5328398.027155216" start_time="19:06:13" end_time="19:39:45" />
			<leg mode="car" dep_time="19:39:45" trav_time="00:05:56" arr_time="19:45:41">
				<route dist="5205.0" trav_time="00:05:56">
					102457591 102472758 102459014 102468789 102467432 102474243 102471317 102470279 102466385 102468472 102469758 102457857 102475855 102468489 102467408 102462454 102459217 102458792 102462446 
				</route>
			</leg>
			<act type="home" link="590600025" x="4468803.761485273" y="5329851.223390675" start_time="19:45:45" />
		</plan>

	</person>


<!-- ====================================================================== -->

</plans>
